45
Properties=species:S:1:pos:R:3:forces:R:3 generated=T by=T VMD=T energy=-242.1136474609375 free_energy=-242.1136474609375 stress="2.273199051217034e-08 1.2344727906565822e-07 -6.183366707546156e-08 1.2344727906565822e-07 1.640680267200878e-07 4.874249626141136e-08 -6.183366707546156e-08 4.874249626141136e-08 3.044543746000272e-07" pbc="F F F"
C       -0.37300000      -1.38700000       1.55400000      -0.01741780       0.15750608       0.30772209
B        0.45800000      -1.49300000       3.03500000       0.21447742      -0.31373939      -0.10079712
B        1.31000000       0.06100000       3.14500000       0.17409588       0.08149709      -0.05262694
B        0.08000000       1.35500000       3.14900000       0.12224190       0.18731812      -0.05763339
B       -0.24300000      -0.18700000       4.02400000       0.07403280       0.07159404      -0.38966930
B       -1.28300000      -1.16800000       2.98900000      -0.29328930      -0.29456657       0.13868742
C       -1.47500000      -0.23500000       1.56400000       0.04865038      -0.08582138       0.31657273
B        1.20000000      -0.77000000       1.57900000       0.26760885      -0.03231168      -0.01974234
B        0.99000000       0.99800000       1.63600000       0.11505839       0.08776662      -0.00641829
B       -0.77900000       1.29700000       1.59000000      -0.11996487       0.36925501      -0.15009613
B       -1.52200000       0.58400000       3.05100000      -0.29184482       0.20046155      -0.10054430
C        1.14300000       0.92400000      -1.55300000       0.11917702      -0.01479292      -0.36702675
B        1.64100000       0.23600000      -3.03000000      -0.37466252       0.02845455       0.13596368
B        0.69900000      -1.26900000      -3.12900000       0.00751098       0.20606470       0.09780565
B       -1.02800000      -0.82800000      -3.13800000       0.11223418       0.18901190       0.02965933
B        0.16300000       0.19900000      -4.02000000       0.00940206       0.11963594       0.36395371
B        0.50800000       1.59700000      -2.99700000      -0.07861308      -0.39794254      -0.12575406
C       -0.40000000       1.32300000      -1.56800000      -0.06593113       0.12640430      -0.37292555
B        1.36600000      -0.74900000      -1.56900000      -0.17078227       0.27471644       0.07061221
B       -0.27500000      -1.43300000      -1.61500000       0.04271279       0.14803788      -0.04489803
B       -1.39200000      -0.03400000      -1.58800000       0.20768154       0.00778925       0.12481642
B       -1.13600000       0.94700000      -3.05600000       0.31628150      -0.12993774       0.06324312
Co       0.00000000       0.00000000       0.00000000       0.04453404      -0.60780674       0.12098941
H       -0.64900000      -2.32700000       1.06700000      -0.15675825       0.08116959      -0.06720847
H        0.81900000      -2.55400000       3.41900000      -0.07424937       0.10862726       0.04213153
H        2.34300000       0.15400000       3.73300000      -0.03633809      -0.01958938       0.01283237
H        0.22900000       2.38100000       3.73600000      -0.02131622      -0.05062498       0.03062971
H       -0.31700000      -0.26600000       5.20700000      -0.03555510      -0.03528352       0.03716037
H       -2.11100000      -1.96300000       3.26400000       0.09704641       0.08890766       0.03378691
H       -2.42800000      -0.45700000       1.07500000       0.02476783      -0.17793262      -0.08426896
H        2.08100000      -1.40400000       1.10000000      -0.17571937       0.09477635      -0.07553618
H        1.80900000       1.78700000       1.27700000      -0.04993260      -0.05636793      -0.02661520
H       -1.35800000       2.22400000       1.13100000       0.09641849      -0.12162963      -0.08568062
H       -2.55800000       0.99800000       3.45200000       0.08734690      -0.07405140       0.03698564
H        1.83000000       1.62500000      -1.06900000       0.12259654      -0.11528391       0.06576717
H        2.74500000       0.43400000      -3.41300000       0.11521155      -0.01607165      -0.04137847
H        1.12700000      -2.22100000      -3.70500000      -0.00583827      -0.04118773      -0.01313790
H       -1.85200000      -1.46100000      -3.72100000      -0.03377534      -0.04518111      -0.02652057
H        0.19500000       0.29200000      -5.20500000      -0.01383252      -0.04889545      -0.01522456
H        0.79700000       2.70500000      -3.28300000       0.03152629       0.12895674      -0.03640099
H       -0.67400000       2.26700000      -1.09000000      -0.18780425       0.00646980       0.06512733
H        2.34800000      -1.20100000      -1.08200000       0.11950044      -0.09418698       0.09411457
H       -0.55700000      -2.53100000      -1.24700000      -0.02295837      -0.06272100       0.03737380
H       -2.48700000       0.02700000      -1.13800000      -0.22486022       0.02125376       0.07997417
H       -2.00400000       1.64400000      -3.46200000      -0.11866957       0.05025154      -0.04580528
