%nprocshared=4
%chk=cyclobutadiene_tight_DFT_wb97xd_6-31d.chk
# opt=tight freq wb97xd/6-31g(d) geom=connectivity

Title Card Required

0 1
 C                 -2.40968828   -1.97721881   -0.45398745
 C                 -0.87674531   -1.98183261   -0.59982613
 C                 -0.85452842   -0.58264021   -0.51235355
 C                 -2.39327013   -0.57521495   -0.45384556
 H                 -3.16743480   -2.72828688   -0.37264274
 H                 -0.12684680   -2.74107809   -0.52173307
 H                 -0.08948976    0.16489233   -0.48387646
 H                 -3.12304901    0.17427571   -0.22893105

 1 2 1.0 4 1.0 5 1.0
 2 3 1.0 6 1.0
 3 4 1.0 7 1.0
 4 8 1.0
 5
 6
 7
 8

