%chk=ethane_tight_DFT_wb97xd_6-31G.chk
# opt=tight freq wb97xd/6-31g geom=connectivity

Title Card Required

0 1
 C                 -5.53435128    0.29252058    0.00765992
 H                 -5.17769685   -0.71628942    0.00765992
 H                 -5.17767844    0.79691877    0.88131143
 H                 -5.17767844    0.79691877   -0.86599158
 C                 -7.07435128    0.29253956    0.00765992
 H                 -7.43100519    1.30134974    0.00767942
 H                 -7.43102384   -0.21184228   -0.86600114
 H                 -7.43102435   -0.21187562    0.88130152

 1 2 1.0 3 1.0 4 1.0 5 1.0
 2
 3
 4
 5 6 1.0 7 1.0 8 1.0
 6
 7
 8

